Version 4
SHEET 1 884 680
WIRE -464 -176 -592 -176
WIRE -256 -176 -464 -176
WIRE -240 -176 -256 -176
WIRE -128 -176 -160 -176
WIRE 656 -176 -128 -176
WIRE -464 -96 -464 -176
WIRE 656 -96 656 -176
WIRE 160 -64 144 -64
WIRE 304 -64 224 -64
WIRE -256 -48 -256 -176
WIRE -128 -48 -128 -176
WIRE 144 16 144 -64
WIRE 160 16 144 16
WIRE 304 16 304 -64
WIRE 304 16 240 16
WIRE 208 128 208 96
WIRE -128 144 -128 32
WIRE -64 144 -128 144
WIRE -16 144 -64 144
WIRE 144 144 144 16
WIRE 144 144 64 144
WIRE 176 144 144 144
WIRE 304 160 304 16
WIRE 304 160 240 160
WIRE 144 176 80 176
WIRE 176 176 144 176
WIRE 208 208 208 192
WIRE -256 240 -256 32
WIRE -144 240 -256 240
WIRE -16 240 -144 240
WIRE 80 240 80 176
WIRE 80 240 64 240
WIRE 144 256 144 176
WIRE 272 256 144 256
WIRE -144 288 -144 240
WIRE -64 288 -64 144
WIRE 144 288 144 256
WIRE 272 288 272 256
WIRE -384 320 -384 304
WIRE -384 352 -384 320
WIRE 144 400 144 368
WIRE 272 400 272 352
WIRE 272 400 144 400
WIRE 144 416 144 400
WIRE -384 464 -384 432
WIRE 144 528 144 496
FLAG 208 208 0
FLAG 208 96 Vcc
FLAG -384 464 0
FLAG 144 528 0
FLAG -384 320 Vcc
FLAG 144 400 Vref
FLAG 448 -16 0
FLAG -592 -16 0
FLAG -144 368 0
FLAG -64 368 0
FLAG 656 -16 0
FLAG -464 -16 0
SYMBOL Opamps\\OP284 208 96 R0
SYMATTR InstName U1
SYMBOL res 80 128 R90
WINDOW 0 0 56 VBottom 2
WINDOW 3 32 56 VTop 2
SYMATTR InstName R1
SYMATTR Value 5.1k
SYMBOL res 80 224 R90
WINDOW 0 0 56 VBottom 2
WINDOW 3 32 56 VTop 2
SYMATTR InstName R2
SYMATTR Value 5.1k
SYMBOL res 256 0 R90
WINDOW 0 0 56 VBottom 2
WINDOW 3 32 56 VTop 2
SYMATTR InstName R3
SYMATTR Value 510k
SYMBOL res 160 384 R180
WINDOW 0 36 76 Left 2
WINDOW 3 36 40 Left 2
SYMATTR InstName R4
SYMATTR Value 510k
SYMBOL voltage -384 336 R0
WINDOW 123 0 0 Left 0
WINDOW 39 0 0 Left 0
SYMATTR InstName V1
SYMATTR Value 5
SYMBOL voltage 144 400 R0
WINDOW 123 0 0 Left 0
WINDOW 39 0 0 Left 0
SYMATTR InstName V2
SYMATTR Value 1.65
SYMBOL res -144 -192 R90
WINDOW 0 0 56 VBottom 2
WINDOW 3 32 56 VTop 2
SYMATTR InstName R5
SYMATTR Value 1
SYMBOL voltage 448 -112 R0
WINDOW 123 0 0 Left 0
WINDOW 39 0 0 Left 0
SYMATTR InstName V3
SYMATTR Value SINE(14 14 1)
SYMBOL res -608 -112 R0
SYMATTR InstName R6
SYMATTR Value 30000
SYMBOL res -144 -64 R0
SYMATTR InstName R7
SYMATTR Value 20k
SYMBOL res -272 -64 R0
SYMATTR InstName R8
SYMATTR Value 20k
SYMBOL res -80 272 R0
SYMATTR InstName R9
SYMATTR Value 2k
SYMBOL res -160 272 R0
SYMATTR InstName R10
SYMATTR Value 2k
SYMBOL cap 224 -80 R90
WINDOW 0 0 32 VBottom 2
WINDOW 3 32 32 VTop 2
SYMATTR InstName C1
SYMATTR Value 10p
SYMBOL cap 288 352 R180
WINDOW 0 24 56 Left 2
WINDOW 3 24 8 Left 2
SYMATTR InstName C2
SYMATTR Value 10p
SYMBOL res 640 -112 R0
SYMATTR InstName R12
SYMATTR Value 3000
SYMBOL voltage -464 -112 R0
WINDOW 123 0 0 Left 0
WINDOW 39 0 0 Left 0
SYMATTR InstName V4
SYMATTR Value SINE(14 14 1)
TEXT -432 496 Left 2 !.tran 2
